26
82227
C          0.71160       -0.13970       -0.77290
C          0.39890        1.36990       -0.46170
C         -0.81170       -0.33900       -0.43440
C         -1.06100        1.11400       -0.94690
C          0.31510        1.65630        1.08910
C         -1.06430       -0.37500        1.03640
C          1.78320       -0.88900        0.09660
C          1.11050       -0.41790       -2.26640
C         -0.50370        0.62920        1.76070
C         -1.82570       -1.46080        1.62030
H          0.96030        2.11170       -1.03550
H         -1.32570       -1.10610       -1.02160
H         -1.20830        1.20330       -2.02730
H         -1.85400        1.68510       -0.45180
H         -0.12060        2.64370        1.25910
H          1.32170        1.66280        1.51220
H          2.75450       -0.40250       -0.00620
H          1.88580       -1.93170       -0.21090
H          1.57160       -0.92620        1.16350
H          0.48230        0.07850       -3.00440
H          2.13100       -0.08190       -2.46090
H          1.05340       -1.48610       -2.48580
H         -0.61840        0.68210        2.74650
H         -1.39420       -2.41630        1.31460
H         -2.85970       -1.41880        1.27490
H         -1.83250       -1.44560        2.71280
